In file included from sim-outorder.c:60:
machine.h:224: error: array type has incomplete element type
sim-outorder.c: In function ‘il1_access_fn’:
sim-outorder.c:499: warning: passing argument 2 of ‘_panic’ discards qualifiers from pointer target type
misc.h:119: note: expected ‘char *’ but argument is of type ‘const char *’
sim-outorder.c:507: warning: passing argument 2 of ‘_panic’ discards qualifiers from pointer target type
misc.h:119: note: expected ‘char *’ but argument is of type ‘const char *’
sim-outorder.c: In function ‘il2_access_fn’:
sim-outorder.c:523: warning: passing argument 2 of ‘_panic’ discards qualifiers from pointer target type
misc.h:119: note: expected ‘char *’ but argument is of type ‘const char *’
sim-outorder.c: In function ‘sim_check_options’:
sim-outorder.c:886: warning: passing argument 2 of ‘_fatal’ discards qualifiers from pointer target type
misc.h:106: note: expected ‘char *’ but argument is of type ‘const char *’
sim-outorder.c:889: warning: passing argument 2 of ‘_fatal’ discards qualifiers from pointer target type
misc.h:106: note: expected ‘char *’ but argument is of type ‘const char *’
sim-outorder.c:892: warning: passing argument 2 of ‘_fatal’ discards qualifiers from pointer target type
misc.h:106: note: expected ‘char *’ but argument is of type ‘const char *’
sim-outorder.c:895: warning: passing argument 2 of ‘_fatal’ discards qualifiers from pointer target type
misc.h:106: note: expected ‘char *’ but argument is of type ‘const char *’
sim-outorder.c:917: warning: passing argument 2 of ‘_fatal’ discards qualifiers from pointer target type
misc.h:106: note: expected ‘char *’ but argument is of type ‘const char *’
sim-outorder.c:919: warning: passing argument 2 of ‘_fatal’ discards qualifiers from pointer target type
misc.h:106: note: expected ‘char *’ but argument is of type ‘const char *’
sim-outorder.c:937: warning: passing argument 2 of ‘_fatal’ discards qualifiers from pointer target type
misc.h:106: note: expected ‘char *’ but argument is of type ‘const char *’
sim-outorder.c:939: warning: passing argument 2 of ‘_fatal’ discards qualifiers from pointer target type
misc.h:106: note: expected ‘char *’ but argument is of type ‘const char *’
sim-outorder.c:956: warning: passing argument 2 of ‘_fatal’ discards qualifiers from pointer target type
misc.h:106: note: expected ‘char *’ but argument is of type ‘const char *’
sim-outorder.c:958: warning: passing argument 2 of ‘_fatal’ discards qualifiers from pointer target type
misc.h:106: note: expected ‘char *’ but argument is of type ‘const char *’
sim-outorder.c:960: warning: passing argument 2 of ‘_fatal’ discards qualifiers from pointer target type
misc.h:106: note: expected ‘char *’ but argument is of type ‘const char *’
sim-outorder.c:962: warning: passing argument 2 of ‘_fatal’ discards qualifiers from pointer target type
misc.h:106: note: expected ‘char *’ but argument is of type ‘const char *’
sim-outorder.c:976: warning: passing argument 2 of ‘_fatal’ discards qualifiers from pointer target type
misc.h:106: note: expected ‘char *’ but argument is of type ‘const char *’
sim-outorder.c:985: warning: passing argument 2 of ‘_fatal’ discards qualifiers from pointer target type
misc.h:106: note: expected ‘char *’ but argument is of type ‘const char *’
sim-outorder.c:988: warning: passing argument 2 of ‘_fatal’ discards qualifiers from pointer target type
misc.h:106: note: expected ‘char *’ but argument is of type ‘const char *’
sim-outorder.c:991: warning: passing argument 2 of ‘_fatal’ discards qualifiers from pointer target type
misc.h:106: note: expected ‘char *’ but argument is of type ‘const char *’
sim-outorder.c:994: warning: passing argument 2 of ‘_fatal’ discards qualifiers from pointer target type
misc.h:106: note: expected ‘char *’ but argument is of type ‘const char *’
sim-outorder.c:997: warning: passing argument 2 of ‘_fatal’ discards qualifiers from pointer target type
misc.h:106: note: expected ‘char *’ but argument is of type ‘const char *’
sim-outorder.c:1000: warning: passing argument 2 of ‘_fatal’ discards qualifiers from pointer target type
misc.h:106: note: expected ‘char *’ but argument is of type ‘const char *’
sim-outorder.c:1009: warning: passing argument 2 of ‘_fatal’ discards qualifiers from pointer target type
misc.h:106: note: expected ‘char *’ but argument is of type ‘const char *’
sim-outorder.c:1016: warning: passing argument 2 of ‘_fatal’ discards qualifiers from pointer target type
misc.h:106: note: expected ‘char *’ but argument is of type ‘const char *’
sim-outorder.c:1028: warning: passing argument 2 of ‘_fatal’ discards qualifiers from pointer target type
misc.h:106: note: expected ‘char *’ but argument is of type ‘const char *’
sim-outorder.c:1043: warning: passing argument 2 of ‘_fatal’ discards qualifiers from pointer target type
misc.h:106: note: expected ‘char *’ but argument is of type ‘const char *’
sim-outorder.c:1049: warning: passing argument 2 of ‘_fatal’ discards qualifiers from pointer target type
misc.h:106: note: expected ‘char *’ but argument is of type ‘const char *’
sim-outorder.c:1054: warning: passing argument 2 of ‘_fatal’ discards qualifiers from pointer target type
misc.h:106: note: expected ‘char *’ but argument is of type ‘const char *’
sim-outorder.c:1060: warning: passing argument 2 of ‘_fatal’ discards qualifiers from pointer target type
misc.h:106: note: expected ‘char *’ but argument is of type ‘const char *’
sim-outorder.c:1065: warning: passing argument 2 of ‘_fatal’ discards qualifiers from pointer target type
misc.h:106: note: expected ‘char *’ but argument is of type ‘const char *’
sim-outorder.c:1072: warning: passing argument 2 of ‘_fatal’ discards qualifiers from pointer target type
misc.h:106: note: expected ‘char *’ but argument is of type ‘const char *’
sim-outorder.c:1083: warning: passing argument 2 of ‘_fatal’ discards qualifiers from pointer target type
misc.h:106: note: expected ‘char *’ but argument is of type ‘const char *’
sim-outorder.c:1090: warning: passing argument 2 of ‘_fatal’ discards qualifiers from pointer target type
misc.h:106: note: expected ‘char *’ but argument is of type ‘const char *’
sim-outorder.c:1105: warning: passing argument 2 of ‘_fatal’ discards qualifiers from pointer target type
misc.h:106: note: expected ‘char *’ but argument is of type ‘const char *’
sim-outorder.c:1119: warning: passing argument 2 of ‘_fatal’ discards qualifiers from pointer target type
misc.h:106: note: expected ‘char *’ but argument is of type ‘const char *’
sim-outorder.c:1127: warning: passing argument 2 of ‘_fatal’ discards qualifiers from pointer target type
misc.h:106: note: expected ‘char *’ but argument is of type ‘const char *’
sim-outorder.c:1130: warning: passing argument 2 of ‘_fatal’ discards qualifiers from pointer target type
misc.h:106: note: expected ‘char *’ but argument is of type ‘const char *’
sim-outorder.c:1133: warning: passing argument 2 of ‘_fatal’ discards qualifiers from pointer target type
misc.h:106: note: expected ‘char *’ but argument is of type ‘const char *’
sim-outorder.c:1136: warning: passing argument 2 of ‘_fatal’ discards qualifiers from pointer target type
misc.h:106: note: expected ‘char *’ but argument is of type ‘const char *’
sim-outorder.c:1139: warning: passing argument 2 of ‘_fatal’ discards qualifiers from pointer target type
misc.h:106: note: expected ‘char *’ but argument is of type ‘const char *’
sim-outorder.c:1142: warning: passing argument 2 of ‘_fatal’ discards qualifiers from pointer target type
misc.h:106: note: expected ‘char *’ but argument is of type ‘const char *’
sim-outorder.c:1145: warning: passing argument 2 of ‘_fatal’ discards qualifiers from pointer target type
misc.h:106: note: expected ‘char *’ but argument is of type ‘const char *’
sim-outorder.c:1148: warning: passing argument 2 of ‘_fatal’ discards qualifiers from pointer target type
misc.h:106: note: expected ‘char *’ but argument is of type ‘const char *’
sim-outorder.c:1151: warning: passing argument 2 of ‘_fatal’ discards qualifiers from pointer target type
misc.h:106: note: expected ‘char *’ but argument is of type ‘const char *’
sim-outorder.c:1153: warning: passing argument 2 of ‘_fatal’ discards qualifiers from pointer target type
misc.h:106: note: expected ‘char *’ but argument is of type ‘const char *’
sim-outorder.c:1157: warning: passing argument 2 of ‘_fatal’ discards qualifiers from pointer target type
misc.h:106: note: expected ‘char *’ but argument is of type ‘const char *’
sim-outorder.c:1159: warning: passing argument 2 of ‘_fatal’ discards qualifiers from pointer target type
misc.h:106: note: expected ‘char *’ but argument is of type ‘const char *’
sim-outorder.c:1163: warning: passing argument 2 of ‘_fatal’ discards qualifiers from pointer target type
misc.h:106: note: expected ‘char *’ but argument is of type ‘const char *’
sim-outorder.c:1165: warning: passing argument 2 of ‘_fatal’ discards qualifiers from pointer target type
misc.h:106: note: expected ‘char *’ but argument is of type ‘const char *’
sim-outorder.c:1169: warning: passing argument 2 of ‘_fatal’ discards qualifiers from pointer target type
misc.h:106: note: expected ‘char *’ but argument is of type ‘const char *’
sim-outorder.c:1171: warning: passing argument 2 of ‘_fatal’ discards qualifiers from pointer target type
misc.h:106: note: expected ‘char *’ but argument is of type ‘const char *’
sim-outorder.c:1175: warning: passing argument 2 of ‘_fatal’ discards qualifiers from pointer target type
misc.h:106: note: expected ‘char *’ but argument is of type ‘const char *’
sim-outorder.c:1177: warning: passing argument 2 of ‘_fatal’ discards qualifiers from pointer target type
misc.h:106: note: expected ‘char *’ but argument is of type ‘const char *’
sim-outorder.c: In function ‘sim_reg_stats’:
sim-outorder.c:1331: warning: passing argument 2 of ‘_fatal’ discards qualifiers from pointer target type
misc.h:106: note: expected ‘char *’ but argument is of type ‘const char *’
sim-outorder.c:1335: warning: passing argument 2 of ‘_fatal’ discards qualifiers from pointer target type
misc.h:106: note: expected ‘char *’ but argument is of type ‘const char *’
sim-outorder.c:1340: warning: passing argument 2 of ‘_panic’ discards qualifiers from pointer target type
misc.h:119: note: expected ‘char *’ but argument is of type ‘const char *’
sim-outorder.c: In function ‘sim_load_prog’:
sim-outorder.c:1425: warning: passing argument 2 of ‘_fatal’ discards qualifiers from pointer target type
misc.h:106: note: expected ‘char *’ but argument is of type ‘const char *’
sim-outorder.c: In function ‘ruu_init’:
sim-outorder.c:1543: warning: passing argument 2 of ‘_fatal’ discards qualifiers from pointer target type
misc.h:106: note: expected ‘char *’ but argument is of type ‘const char *’
sim-outorder.c: In function ‘lsq_init’:
sim-outorder.c:1661: warning: passing argument 2 of ‘_fatal’ discards qualifiers from pointer target type
misc.h:106: note: expected ‘char *’ but argument is of type ‘const char *’
sim-outorder.c: In function ‘rslink_init’:
sim-outorder.c:1781: warning: passing argument 2 of ‘_fatal’ discards qualifiers from pointer target type
misc.h:106: note: expected ‘char *’ but argument is of type ‘const char *’
sim-outorder.c: In function ‘eventq_queue_event’:
sim-outorder.c:1859: warning: passing argument 2 of ‘_panic’ discards qualifiers from pointer target type
misc.h:119: note: expected ‘char *’ but argument is of type ‘const char *’
sim-outorder.c:1862: warning: passing argument 2 of ‘_panic’ discards qualifiers from pointer target type
misc.h:119: note: expected ‘char *’ but argument is of type ‘const char *’
sim-outorder.c:1865: warning: passing argument 2 of ‘_panic’ discards qualifiers from pointer target type
misc.h:119: note: expected ‘char *’ but argument is of type ‘const char *’
sim-outorder.c: In function ‘readyq_enqueue’:
sim-outorder.c:1994: warning: passing argument 2 of ‘_panic’ discards qualifiers from pointer target type
misc.h:119: note: expected ‘char *’ but argument is of type ‘const char *’
sim-outorder.c:1998: warning: passing argument 2 of ‘_panic’ discards qualifiers from pointer target type
misc.h:119: note: expected ‘char *’ but argument is of type ‘const char *’
sim-outorder.c: In function ‘ruu_commit’:
sim-outorder.c:2157: warning: passing argument 2 of ‘_panic’ discards qualifiers from pointer target type
misc.h:119: note: expected ‘char *’ but argument is of type ‘const char *’
sim-outorder.c:2179: warning: passing argument 2 of ‘_panic’ discards qualifiers from pointer target type
misc.h:119: note: expected ‘char *’ but argument is of type ‘const char *’
sim-outorder.c:2271: warning: passing argument 2 of ‘_panic’ discards qualifiers from pointer target type
misc.h:119: note: expected ‘char *’ but argument is of type ‘const char *’
sim-outorder.c: In function ‘ruu_recover’:
sim-outorder.c:2302: warning: passing argument 2 of ‘_panic’ discards qualifiers from pointer target type
misc.h:119: note: expected ‘char *’ but argument is of type ‘const char *’
sim-outorder.c:2306: warning: passing argument 2 of ‘_panic’ discards qualifiers from pointer target type
misc.h:119: note: expected ‘char *’ but argument is of type ‘const char *’
sim-outorder.c:2313: warning: passing argument 2 of ‘_panic’ discards qualifiers from pointer target type
misc.h:119: note: expected ‘char *’ but argument is of type ‘const char *’
sim-outorder.c: In function ‘ruu_writeback’:
sim-outorder.c:2391: warning: passing argument 2 of ‘_panic’ discards qualifiers from pointer target type
misc.h:119: note: expected ‘char *’ but argument is of type ‘const char *’
sim-outorder.c:2400: warning: passing argument 2 of ‘_panic’ discards qualifiers from pointer target type
misc.h:119: note: expected ‘char *’ but argument is of type ‘const char *’
sim-outorder.c:2483: warning: passing argument 2 of ‘_panic’ discards qualifiers from pointer target type
misc.h:119: note: expected ‘char *’ but argument is of type ‘const char *’
sim-outorder.c: In function ‘lsq_refresh’:
sim-outorder.c:2560: warning: passing argument 2 of ‘_fatal’ discards qualifiers from pointer target type
misc.h:106: note: expected ‘char *’ but argument is of type ‘const char *’
sim-outorder.c: In function ‘ruu_issue’:
sim-outorder.c:2644: warning: passing argument 2 of ‘_panic’ discards qualifiers from pointer target type
misc.h:119: note: expected ‘char *’ but argument is of type ‘const char *’
sim-outorder.c:2659: warning: passing argument 2 of ‘_panic’ discards qualifiers from pointer target type
misc.h:119: note: expected ‘char *’ but argument is of type ‘const char *’
sim-outorder.c:2662: warning: passing argument 2 of ‘_panic’ discards qualifiers from pointer target type
misc.h:119: note: expected ‘char *’ but argument is of type ‘const char *’
sim-outorder.c:2682: warning: passing argument 2 of ‘_panic’ discards qualifiers from pointer target type
misc.h:119: note: expected ‘char *’ but argument is of type ‘const char *’
sim-outorder.c: In function ‘tracer_recover’:
sim-outorder.c:2964: warning: passing argument 2 of ‘_panic’ discards qualifiers from pointer target type
misc.h:119: note: expected ‘char *’ but argument is of type ‘const char *’
sim-outorder.c: In function ‘spec_mem_access’:
sim-outorder.c:3103: warning: passing argument 2 of ‘_fatal’ discards qualifiers from pointer target type
misc.h:106: note: expected ‘char *’ but argument is of type ‘const char *’
sim-outorder.c:3210: warning: passing argument 2 of ‘_panic’ discards qualifiers from pointer target type
misc.h:119: note: expected ‘char *’ but argument is of type ‘const char *’
sim-outorder.c: In function ‘ruu_link_idep’:
sim-outorder.c:3317: warning: passing argument 2 of ‘_panic’ discards qualifiers from pointer target type
misc.h:119: note: expected ‘char *’ but argument is of type ‘const char *’
sim-outorder.c: In function ‘simoo_reg_obj’:
sim-outorder.c:3686: warning: passing argument 2 of ‘_panic’ discards qualifiers from pointer target type
misc.h:119: note: expected ‘char *’ but argument is of type ‘const char *’
sim-outorder.c: In function ‘ruu_dispatch’:
sim-outorder.c:3770: warning: passing argument 2 of ‘_panic’ discards qualifiers from pointer target type
misc.h:119: note: expected ‘char *’ but argument is of type ‘const char *’
In file included from sim-outorder.c:3824:
machine.def:777: warning: passing argument 2 of ‘_panic’ discards qualifiers from pointer target type
misc.h:119: note: expected ‘char *’ but argument is of type ‘const char *’
sim-outorder.c:3847: warning: passing argument 2 of ‘_fatal’ discards qualifiers from pointer target type
misc.h:106: note: expected ‘char *’ but argument is of type ‘const char *’
sim-outorder.c:4106: warning: passing argument 2 of ‘_panic’ discards qualifiers from pointer target type
misc.h:119: note: expected ‘char *’ but argument is of type ‘const char *’
sim-outorder.c: In function ‘fetch_init’:
sim-outorder.c:4150: warning: passing argument 2 of ‘_fatal’ discards qualifiers from pointer target type
misc.h:106: note: expected ‘char *’ but argument is of type ‘const char *’
In file included from sim-outorder.c:4495:
machine.def: In function ‘sim_main’:
machine.def:200: warning: passing argument 2 of ‘_panic’ discards qualifiers from pointer target type
misc.h:119: note: expected ‘char *’ but argument is of type ‘const char *’
machine.def:311: warning: passing argument 2 of ‘_panic’ discards qualifiers from pointer target type
misc.h:119: note: expected ‘char *’ but argument is of type ‘const char *’
machine.def:313: warning: passing argument 2 of ‘_panic’ discards qualifiers from pointer target type
misc.h:119: note: expected ‘char *’ but argument is of type ‘const char *’
machine.def:315: warning: passing argument 2 of ‘_panic’ discards qualifiers from pointer target type
misc.h:119: note: expected ‘char *’ but argument is of type ‘const char *’
machine.def:318: warning: passing argument 2 of ‘_panic’ discards qualifiers from pointer target type
misc.h:119: note: expected ‘char *’ but argument is of type ‘const char *’
machine.def:323: warning: passing argument 2 of ‘_panic’ discards qualifiers from pointer target type
misc.h:119: note: expected ‘char *’ but argument is of type ‘const char *’
machine.def:336: warning: passing argument 2 of ‘_panic’ discards qualifiers from pointer target type
misc.h:119: note: expected ‘char *’ but argument is of type ‘const char *’
machine.def:338: warning: passing argument 2 of ‘_panic’ discards qualifiers from pointer target type
misc.h:119: note: expected ‘char *’ but argument is of type ‘const char *’
machine.def:341: warning: passing argument 2 of ‘_panic’ discards qualifiers from pointer target type
misc.h:119: note: expected ‘char *’ but argument is of type ‘const char *’
machine.def:343: warning: passing argument 2 of ‘_panic’ discards qualifiers from pointer target type
misc.h:119: note: expected ‘char *’ but argument is of type ‘const char *’
machine.def:346: warning: passing argument 2 of ‘_panic’ discards qualifiers from pointer target type
misc.h:119: note: expected ‘char *’ but argument is of type ‘const char *’
machine.def:777: warning: passing argument 2 of ‘_panic’ discards qualifiers from pointer target type
misc.h:119: note: expected ‘char *’ but argument is of type ‘const char *’
machine.def:803: warning: passing argument 2 of ‘_panic’ discards qualifiers from pointer target type
misc.h:119: note: expected ‘char *’ but argument is of type ‘const char *’
machine.def:805: warning: passing argument 2 of ‘_panic’ discards qualifiers from pointer target type
misc.h:119: note: expected ‘char *’ but argument is of type ‘const char *’
machine.def:807: warning: passing argument 2 of ‘_panic’ discards qualifiers from pointer target type
misc.h:119: note: expected ‘char *’ but argument is of type ‘const char *’
machine.def:809: warning: passing argument 2 of ‘_panic’ discards qualifiers from pointer target type
misc.h:119: note: expected ‘char *’ but argument is of type ‘const char *’
machine.def:811: warning: passing argument 2 of ‘_panic’ discards qualifiers from pointer target type
misc.h:119: note: expected ‘char *’ but argument is of type ‘const char *’
machine.def:813: warning: passing argument 2 of ‘_panic’ discards qualifiers from pointer target type
misc.h:119: note: expected ‘char *’ but argument is of type ‘const char *’
machine.def:815: warning: passing argument 2 of ‘_panic’ discards qualifiers from pointer target type
misc.h:119: note: expected ‘char *’ but argument is of type ‘const char *’
machine.def:817: warning: passing argument 2 of ‘_panic’ discards qualifiers from pointer target type
misc.h:119: note: expected ‘char *’ but argument is of type ‘const char *’
machine.def:819: warning: passing argument 2 of ‘_panic’ discards qualifiers from pointer target type
misc.h:119: note: expected ‘char *’ but argument is of type ‘const char *’
machine.def:821: warning: passing argument 2 of ‘_panic’ discards qualifiers from pointer target type
misc.h:119: note: expected ‘char *’ but argument is of type ‘const char *’
machine.def:823: warning: passing argument 2 of ‘_panic’ discards qualifiers from pointer target type
misc.h:119: note: expected ‘char *’ but argument is of type ‘const char *’
machine.def:825: warning: passing argument 2 of ‘_panic’ discards qualifiers from pointer target type
misc.h:119: note: expected ‘char *’ but argument is of type ‘const char *’
machine.def:827: warning: passing argument 2 of ‘_panic’ discards qualifiers from pointer target type
misc.h:119: note: expected ‘char *’ but argument is of type ‘const char *’
machine.def:829: warning: passing argument 2 of ‘_panic’ discards qualifiers from pointer target type
misc.h:119: note: expected ‘char *’ but argument is of type ‘const char *’
machine.def:831: warning: passing argument 2 of ‘_panic’ discards qualifiers from pointer target type
misc.h:119: note: expected ‘char *’ but argument is of type ‘const char *’
machine.def:833: warning: passing argument 2 of ‘_panic’ discards qualifiers from pointer target type
misc.h:119: note: expected ‘char *’ but argument is of type ‘const char *’
machine.def:835: warning: passing argument 2 of ‘_panic’ discards qualifiers from pointer target type
misc.h:119: note: expected ‘char *’ but argument is of type ‘const char *’
machine.def:837: warning: passing argument 2 of ‘_panic’ discards qualifiers from pointer target type
misc.h:119: note: expected ‘char *’ but argument is of type ‘const char *’
machine.def:839: warning: passing argument 2 of ‘_panic’ discards qualifiers from pointer target type
misc.h:119: note: expected ‘char *’ but argument is of type ‘const char *’
machine.def:841: warning: passing argument 2 of ‘_panic’ discards qualifiers from pointer target type
misc.h:119: note: expected ‘char *’ but argument is of type ‘const char *’
machine.def:843: warning: passing argument 2 of ‘_panic’ discards qualifiers from pointer target type
misc.h:119: note: expected ‘char *’ but argument is of type ‘const char *’
machine.def:845: warning: passing argument 2 of ‘_panic’ discards qualifiers from pointer target type
misc.h:119: note: expected ‘char *’ but argument is of type ‘const char *’
machine.def:1344: warning: passing argument 2 of ‘_panic’ discards qualifiers from pointer target type
misc.h:119: note: expected ‘char *’ but argument is of type ‘const char *’
machine.def:1346: warning: passing argument 2 of ‘_panic’ discards qualifiers from pointer target type
misc.h:119: note: expected ‘char *’ but argument is of type ‘const char *’
machine.def:1348: warning: passing argument 2 of ‘_panic’ discards qualifiers from pointer target type
misc.h:119: note: expected ‘char *’ but argument is of type ‘const char *’
machine.def:1350: warning: passing argument 2 of ‘_panic’ discards qualifiers from pointer target type
misc.h:119: note: expected ‘char *’ but argument is of type ‘const char *’
machine.def:1353: warning: passing argument 2 of ‘_panic’ discards qualifiers from pointer target type
misc.h:119: note: expected ‘char *’ but argument is of type ‘const char *’
machine.def:1355: warning: passing argument 2 of ‘_panic’ discards qualifiers from pointer target type
misc.h:119: note: expected ‘char *’ but argument is of type ‘const char *’
machine.def:1357: warning: passing argument 2 of ‘_panic’ discards qualifiers from pointer target type
misc.h:119: note: expected ‘char *’ but argument is of type ‘const char *’
machine.def:1359: warning: passing argument 2 of ‘_panic’ discards qualifiers from pointer target type
misc.h:119: note: expected ‘char *’ but argument is of type ‘const char *’
machine.def:1361: warning: passing argument 2 of ‘_panic’ discards qualifiers from pointer target type
misc.h:119: note: expected ‘char *’ but argument is of type ‘const char *’
machine.def:1363: warning: passing argument 2 of ‘_panic’ discards qualifiers from pointer target type
misc.h:119: note: expected ‘char *’ but argument is of type ‘const char *’
machine.def:1365: warning: passing argument 2 of ‘_panic’ discards qualifiers from pointer target type
misc.h:119: note: expected ‘char *’ but argument is of type ‘const char *’
machine.def:1367: warning: passing argument 2 of ‘_panic’ discards qualifiers from pointer target type
misc.h:119: note: expected ‘char *’ but argument is of type ‘const char *’
machine.def:1370: warning: passing argument 2 of ‘_panic’ discards qualifiers from pointer target type
misc.h:119: note: expected ‘char *’ but argument is of type ‘const char *’
machine.def:1372: warning: passing argument 2 of ‘_panic’ discards qualifiers from pointer target type
misc.h:119: note: expected ‘char *’ but argument is of type ‘const char *’
machine.def:1374: warning: passing argument 2 of ‘_panic’ discards qualifiers from pointer target type
misc.h:119: note: expected ‘char *’ but argument is of type ‘const char *’
machine.def:1731: warning: passing argument 2 of ‘_panic’ discards qualifiers from pointer target type
misc.h:119: note: expected ‘char *’ but argument is of type ‘const char *’
machine.def:1733: warning: passing argument 2 of ‘_panic’ discards qualifiers from pointer target type
misc.h:119: note: expected ‘char *’ but argument is of type ‘const char *’
machine.def:1735: warning: passing argument 2 of ‘_panic’ discards qualifiers from pointer target type
misc.h:119: note: expected ‘char *’ but argument is of type ‘const char *’
machine.def:1737: warning: passing argument 2 of ‘_panic’ discards qualifiers from pointer target type
misc.h:119: note: expected ‘char *’ but argument is of type ‘const char *’
machine.def:1739: warning: passing argument 2 of ‘_panic’ discards qualifiers from pointer target type
misc.h:119: note: expected ‘char *’ but argument is of type ‘const char *’
machine.def:1741: warning: passing argument 2 of ‘_panic’ discards qualifiers from pointer target type
misc.h:119: note: expected ‘char *’ but argument is of type ‘const char *’
machine.def:1743: warning: passing argument 2 of ‘_panic’ discards qualifiers from pointer target type
misc.h:119: note: expected ‘char *’ but argument is of type ‘const char *’
machine.def:1745: warning: passing argument 2 of ‘_panic’ discards qualifiers from pointer target type
misc.h:119: note: expected ‘char *’ but argument is of type ‘const char *’
machine.def:1747: warning: passing argument 2 of ‘_panic’ discards qualifiers from pointer target type
misc.h:119: note: expected ‘char *’ but argument is of type ‘const char *’
machine.def:1749: warning: passing argument 2 of ‘_panic’ discards qualifiers from pointer target type
misc.h:119: note: expected ‘char *’ but argument is of type ‘const char *’
machine.def:1751: warning: passing argument 2 of ‘_panic’ discards qualifiers from pointer target type
misc.h:119: note: expected ‘char *’ but argument is of type ‘const char *’
machine.def:1753: warning: passing argument 2 of ‘_panic’ discards qualifiers from pointer target type
misc.h:119: note: expected ‘char *’ but argument is of type ‘const char *’
machine.def:1755: warning: passing argument 2 of ‘_panic’ discards qualifiers from pointer target type
misc.h:119: note: expected ‘char *’ but argument is of type ‘const char *’
machine.def:1757: warning: passing argument 2 of ‘_panic’ discards qualifiers from pointer target type
misc.h:119: note: expected ‘char *’ but argument is of type ‘const char *’
machine.def:1759: warning: passing argument 2 of ‘_panic’ discards qualifiers from pointer target type
misc.h:119: note: expected ‘char *’ but argument is of type ‘const char *’
machine.def:1761: warning: passing argument 2 of ‘_panic’ discards qualifiers from pointer target type
misc.h:119: note: expected ‘char *’ but argument is of type ‘const char *’
machine.def:1763: warning: passing argument 2 of ‘_panic’ discards qualifiers from pointer target type
misc.h:119: note: expected ‘char *’ but argument is of type ‘const char *’
machine.def:1765: warning: passing argument 2 of ‘_panic’ discards qualifiers from pointer target type
misc.h:119: note: expected ‘char *’ but argument is of type ‘const char *’
machine.def:1767: warning: passing argument 2 of ‘_panic’ discards qualifiers from pointer target type
misc.h:119: note: expected ‘char *’ but argument is of type ‘const char *’
machine.def:1769: warning: passing argument 2 of ‘_panic’ discards qualifiers from pointer target type
misc.h:119: note: expected ‘char *’ but argument is of type ‘const char *’
machine.def:1771: warning: passing argument 2 of ‘_panic’ discards qualifiers from pointer target type
misc.h:119: note: expected ‘char *’ but argument is of type ‘const char *’
machine.def:1773: warning: passing argument 2 of ‘_panic’ discards qualifiers from pointer target type
misc.h:119: note: expected ‘char *’ but argument is of type ‘const char *’
machine.def:1775: warning: passing argument 2 of ‘_panic’ discards qualifiers from pointer target type
misc.h:119: note: expected ‘char *’ but argument is of type ‘const char *’
machine.def:1777: warning: passing argument 2 of ‘_panic’ discards qualifiers from pointer target type
misc.h:119: note: expected ‘char *’ but argument is of type ‘const char *’
machine.def:1779: warning: passing argument 2 of ‘_panic’ discards qualifiers from pointer target type
misc.h:119: note: expected ‘char *’ but argument is of type ‘const char *’
machine.def:1781: warning: passing argument 2 of ‘_panic’ discards qualifiers from pointer target type
misc.h:119: note: expected ‘char *’ but argument is of type ‘const char *’
machine.def:2439: warning: passing argument 2 of ‘_panic’ discards qualifiers from pointer target type
misc.h:119: note: expected ‘char *’ but argument is of type ‘const char *’
machine.def:2441: warning: passing argument 2 of ‘_panic’ discards qualifiers from pointer target type
misc.h:119: note: expected ‘char *’ but argument is of type ‘const char *’
machine.def:2443: warning: passing argument 2 of ‘_panic’ discards qualifiers from pointer target type
misc.h:119: note: expected ‘char *’ but argument is of type ‘const char *’
machine.def:3142: warning: passing argument 2 of ‘_panic’ discards qualifiers from pointer target type
misc.h:119: note: expected ‘char *’ but argument is of type ‘const char *’
machine.def:3145: warning: passing argument 2 of ‘_panic’ discards qualifiers from pointer target type
misc.h:119: note: expected ‘char *’ but argument is of type ‘const char *’
machine.def:3319: warning: passing argument 2 of ‘_panic’ discards qualifiers from pointer target type
misc.h:119: note: expected ‘char *’ but argument is of type ‘const char *’
machine.def:3321: warning: passing argument 2 of ‘_panic’ discards qualifiers from pointer target type
misc.h:119: note: expected ‘char *’ but argument is of type ‘const char *’
machine.def:3323: warning: passing argument 2 of ‘_panic’ discards qualifiers from pointer target type
misc.h:119: note: expected ‘char *’ but argument is of type ‘const char *’
machine.def:3325: warning: passing argument 2 of ‘_panic’ discards qualifiers from pointer target type
misc.h:119: note: expected ‘char *’ but argument is of type ‘const char *’
machine.def:3327: warning: passing argument 2 of ‘_panic’ discards qualifiers from pointer target type
misc.h:119: note: expected ‘char *’ but argument is of type ‘const char *’
machine.def:3329: warning: passing argument 2 of ‘_panic’ discards qualifiers from pointer target type
misc.h:119: note: expected ‘char *’ but argument is of type ‘const char *’
machine.def:3331: warning: passing argument 2 of ‘_panic’ discards qualifiers from pointer target type
misc.h:119: note: expected ‘char *’ but argument is of type ‘const char *’
machine.def:3333: warning: passing argument 2 of ‘_panic’ discards qualifiers from pointer target type
misc.h:119: note: expected ‘char *’ but argument is of type ‘const char *’
sim-outorder.c:4497: warning: passing argument 2 of ‘_panic’ discards qualifiers from pointer target type
misc.h:119: note: expected ‘char *’ but argument is of type ‘const char *’
sim-outorder.c:4501: warning: passing argument 2 of ‘_fatal’ discards qualifiers from pointer target type
misc.h:106: note: expected ‘char *’ but argument is of type ‘const char *’
sim-outorder.c:4535: warning: passing argument 2 of ‘_panic’ discards qualifiers from pointer target type
misc.h:119: note: expected ‘char *’ but argument is of type ‘const char *’
sim-outorder.c:4537: warning: passing argument 2 of ‘_panic’ discards qualifiers from pointer target type
misc.h:119: note: expected ‘char *’ but argument is of type ‘const char *’
sim-outorder.c:4539: warning: passing argument 2 of ‘_panic’ discards qualifiers from pointer target type
misc.h:119: note: expected ‘char *’ but argument is of type ‘const char *’
make: *** [sim-outorder.o] Error 1
